LAMMPS (10 Sep 2025 - Development - patch_10Sep2025-660-g792d014343)
# ----------------------------------------------
# Mullar Plathe viscosity by momentum transfer in LJ fluid
# ----------------------------------------------

units           lj
dimension       3
boundary        p p p
atom_style      atomic

# -------------- USER PARAMETERS ----------------
variable T      equal 1.0        # target temperature
variable Tinit  equal 1.0        # equilibration temperature
variable dt     equal 0.00001

# Correlation sampling parameters
variable p      equal 400        # correlation length (samples)
variable s      equal 5          # sampling interval (steps)
variable d      equal 400*5

# In LJ units: kB = 1
variable kB     equal 1.0

# ---------------- SYSTEM SETUP -----------------
region          box block 0 20 0 20 0 20
create_box      1 box
Created orthogonal box = (0 0 0) to (20 20 20)
lattice         fcc 0.6
Lattice spacing in x,y,z = 1.8820721 1.8820721 1.8820721
create_atoms    1 box
Created 5324 atoms
mass            1 1.0

pair_style      lj/cut 3.0
pair_coeff      1 1 1.0 1.0 3.0

timestep        1e-05
thermo          2000

# ------------------ EQUILIBRATION ------------------

velocity        all create 1 12345 mom yes rot yes dist gaussian
velocity        all scale 1

fix thermostat all langevin 1 1 0.1 34300
fix integrator all nve

thermo 100
thermo_style custom step temp press ke pe

run             50000
Generated 0 of 0 mixed pair_coeff terms from geometric mixing rule
Step          Temp          Press          KinEng         PotEng
0   1              61635.337      1.4997183      23132.685
Averages over the last 251 of 501 rows, steps 25000 to 50000:
Temp Press KinEng PotEng
30.4014 48.5483 45.5935 4.58595
Loop time of 180.922 on 1 procs for 50000 steps with 5324 atoms

variable dt     equal 0.005
timestep        0.005
run             50000
Generated 0 of 0 mixed pair_coeff terms from geometric mixing rule
Step          Temp          Press          KinEng         PotEng
50000   3.0528021      6.8102139      4.578343      -3.0239922
Averages over the last 251 of 501 rows, steps 75000 to 100000:
Temp Press KinEng PotEng
1.00019 0.135651 1.5 -4.44775
Loop time of 252.832 on 1 procs for 50000 steps with 5324 atoms

unfix           thermostat
unfix 		integrator
fix		4 all viscosity 100 x y 20
compute chunk_1 all chunk/atom bin/1d y lower 0.05 units reduced
fix velo all ave/chunk 20 50 1000 chunk_1 vx file velocity_profile.txt
# do not put any mode like mode vector in this kind of fixes

variable	dVx equal f_velo[1][3]-f_velo[11][3]
thermo          1000
thermo_style	custom step temp epair etotal press
fix integrator all nve
run		20000
Generated 0 of 0 mixed pair_coeff terms from geometric mixing rule
Step          Temp          E_pair         TotEng         Press
100000   1.0063059     -4.4368866     -2.9277112      0.23605181
Averages over the last 11 of 21 rows, steps 110000 to 120000:
Temp E_pair TotEng Press
1.01159 -4.44492 -2.92782 0.151953
Loop time of 99.2646 on 1 procs for 20000 steps with 5324 atoms

unfix		4
fix		4 all viscosity 100 x y 20
variable	visc equal -(f_4/(2*(step*0.005  - 120000*0.005)*20*20+1.0e-10))/(v_dVx/(10.0))
fix		vave all ave/time 1000 1 1000 v_visc ave running start 26000
thermo_style	custom step temp f_4 v_dVx v_visc f_vave
run	        50000
Generated 0 of 0 mixed pair_coeff terms from geometric mixing rule
Step          Temp           f_4           v_dVx          v_visc         f_vave
120000   1.0191602      0             -0.075540665    0              0
Averages over the last 26 of 51 rows, steps 145000 to 170000:
Temp f_4 v_dVx v_visc f_vave
1.01117 -2095.99 -0.132648 -1.27013 -1.36952
Loop time of 248.552 on 1 procs for 50000 steps with 5324 atoms
