LAMMPS (10 Sep 2025 - Development - patch_10Sep2025-660-g792d014343)
# Defining the essential variables

units lj
dimension 3
atom_style atomic
boundary p p p

# Creating  a large box

region my_box block 0 30 0 30 0 30
create_box 1 my_box
Created orthogonal box = (0 0 0) to (30 30 30)

# Filling up the box with the particles

create_atoms 1 random 5000 87910 my_box
Created 5000 atoms

# Defining the particle's properties and switching off the interaction

mass 1 2.0

pair_style lj/cut 2.5
pair_style none

# Creating initial velocity distribution for a given temperature

velocity all create 4.0 12345 mom yes rot no  # Assign initial velocities

# Setting up Brownian dynamics through the Langevin thermostat at a particular temperature

fix my_thermo_stat all langevin 1  1  0.1 89080

# Applying an integrator to update the position and the velocity

fix integrator all nve

# Setting up time achieved by each simulation step

timestep 0.005

# Specifying the parameters to print on the terminal

thermo 100
thermo_style custom step temp ke pe press

# Apply another compute to calculate the mean squared displacement

compute msd_all all msd
fix msd_output all ave/time 100 1 100 c_msd_all file msd.dat mode vector

# Running the simulation

run 40000
Step          Temp          KinEng         PotEng         Press
0   4              5.9988         0              0.74059259
Averages over the last 201 of 401 rows, steps 20000 to 40000:
Temp KinEng PotEng Press
1.00039 1.50028 0 0.18522
Loop time of 7.50087 on 1 procs for 40000 steps with 5000 atoms
