LAMMPS (7 Feb 2024 - Update 1)
# Defining the essential variables

units lj
dimension 3
atom_style atomic
boundary p p p
pair_style lj/cut 2.5

# Creating the simulation box

region my_box block 0 15 0 15 0 90
create_box 1 my_box
Created orthogonal box = (0 0 0) to (15 15 90)

# Generating the particles

create_atoms 1 random 5000 87910 my_box overlap 1.5 maxtry 50
Created 3428 atoms

# Defining the particles properties and the interaction parameters

mass 1 1.0

pair_style lj/cut 2.6
pair_coeff 1  1  1.0 1.0 2.5

# Assigning the initial velocity to the particles

velocity all create 1.0 12345 mom yes rot no  # Assign initial velocities

# Applying an NpT thermostat and integrator

fix my_pressure all npt temp 0.4 0.4 1 z 10 10 1.0 couple none

# Setting up time achieved in each simulation steps in lj unit

timestep 0.005

# Specifying the parameters for printing on the terminal

thermo 100
thermo_style custom step temp ke pe press
dump 1 all custom 100 simulation_data_compressor.lammpstrj id type x y z vx vy vz

# Running the simulation

run 20000
Generated 0 of 0 mixed pair_coeff terms from geometric mixing rule
Step          Temp          KinEng         PotEng         Press
0   1              1.4995624     -0.48619773     0.012216446
Averages over the last 101 of 201 rows, steps 10000 to 20000:
Temp KinEng PotEng Press
0.399692 0.599362 -6.62579 9.8954
Loop time of 34.4426 on 1 procs for 20000 steps with 3428 atoms

# Exporting the simulation state to be loaded by the next simulation script

write_data compressed_coordinate.data
System init for write_data ...
Generated 0 of 0 mixed pair_coeff terms from geometric mixing rule
