LAMMPS (10 Sep 2025 - Development - patch_10Sep2025-660-g792d014343)
# ----------------------------------------------
# Green–Kubo viscosity in LJ units (matching Ar example)
# ----------------------------------------------

units           lj
dimension       3
boundary        p p p
atom_style      atomic

# -------------- USER PARAMETERS ----------------
variable T      equal 1.0        # target temperature
variable Tinit  equal 1.2        # equilibration temperature
variable dt     equal 0.00001

# Correlation sampling parameters
variable p      equal 400        # correlation length (samples)
variable s      equal 5          # sampling interval (steps)
variable d      equal 400*5

# In LJ units: kB = 1
variable kB     equal 1.0

# ---------------- SYSTEM SETUP -----------------
region          box block 0 23 0 23 0 23
create_box      1 box
Created orthogonal box = (0 0 0) to (23 23 23)
lattice         fcc 0.05
Lattice spacing in x,y,z = 4.3088694 4.3088694 4.3088694
create_atoms    1 box
Created 666 atoms
mass            1 1.0

pair_style      lj/cut 3.5
pair_modify shift yes

pair_coeff      1 1 1.0 1.0 3.5

timestep        1e-05
thermo          2000
thermo_style custom step temp press ke

# ------------------ EQUILIBRATION ------------------

velocity        all create 1.2 12345 dist gaussian
velocity        all scale 1

fix thermostat all langevin 1 1 0.1 34300
fix integrator all nve

dump 1 all custom 500 simulation_data.lammpstrj id type x y z

run             100000
Generated 0 of 0 mixed pair_coeff terms from geometric mixing rule
Step          Temp          Press          KinEng
0   1              0.041382975    1.4977477
Averages over the last 26 of 51 rows, steps 50000 to 100000:
Temp Press KinEng
0.991795 0.0486333 1.48546
Loop time of 4.014 on 1 procs for 100000 steps with 666 atoms

variable dt     equal 0.001
timestep  0.001

run             50000
Generated 0 of 0 mixed pair_coeff terms from geometric mixing rule
Step          Temp          Press          KinEng
100000   0.9423494      0.042682469    1.4114017
Averages over the last 13 of 26 rows, steps 126000 to 150000:
Temp Press KinEng
1.00521 0.0413753 1.50555
Loop time of 2.54907 on 1 procs for 50000 steps with 666 atoms

unfix          thermostat
unfix 	       integrator

# ------------------ PRODUCTION SETUP ------------------

velocity        all scale 1

fix integrator all nve

undump 1
reset_timestep  0

# Stress tensor components for autocorrelation
variable pxy equal pxy
variable pxz equal pxz
variable pyz equal pyz

# Autocorrelation (same method as Ar script)
fix SS all ave/correlate 5 400 2000 v_pxy v_pxz v_pyz type auto file S0S.dat ave running

# Volume for Green–Kubo prefactor
variable V equal vol

# GK viscosity prefactor, LJ units:
# η = V / (kB T)  ∫ <Pαβ(0) Pαβ(t)> dt
variable scale equal 12167/(1*1)*5*0.001

# Integrals from fix ave/correlate output
variable v11 equal trap(f_SS[3])*60.835
variable v22 equal trap(f_SS[4])*60.835
variable v33 equal trap(f_SS[5])*60.835

thermo_style custom step temp press v_pxy v_pxz v_pyz v_v11 v_v22 v_v33

# ------------------ PRODUCTION RUN ------------------
run 500000
Generated 0 of 0 mixed pair_coeff terms from geometric mixing rule
Step          Temp          Press          v_pxy          v_pxz          v_pyz          v_v11          v_v22          v_v33
0   1              0.040558727   -0.00062321435  0.0012076249  -0.00051227575  1.1814039e-05  4.4359601e-05  7.9823563e-06
Averages over the last 126 of 251 rows, steps 250000 to 500000:
Temp Press v_pxy v_pxz v_pyz v_v11 v_v22 v_v33
1.01405 0.0406409 6.08229e-06 0.00080108 -0.000593111 0.0937858 0.0797704 0.092431
Loop time of 19.308 on 1 procs for 500000 steps with 666 atoms

variable eta equal (v_v11+v_v22+v_v33)/3.0
variable ndens equal count(all)/vol

Average viscosity: 0.086895241839642 (LJ units) @ 1 LJ, density 0.054738226349963
