LAMMPS (10 Sep 2025 - Development - patch_10Sep2025-660-g792d014343)
units real
atom_style molecular
boundary p p p

pair_style lj/cut 5.0
bond_style harmonic
angle_style harmonic

special_bonds lj 0.0 0.0 0.5
read_data input_water_with_topology.txt
Reading data file ...
  orthogonal box = (0 0 0) to (100 100 100)
  reading atoms ...
  73167 atoms
  scanning bonds ...
  scanning angles ...
  orthogonal box = (0 0 0) to (100 100 100)
  reading bonds ...
  48778 bonds
  reading angles ...
  24389 angles
Finding 1-2 1-3 1-4 neighbors ...
     2 = max # of 1-2 neighbors
     1 = max # of 1-3 neighbors
     1 = max # of 1-4 neighbors
     2 = max # of special neighbors
include water_utilities.txt
bond_coeff   1         1000.0   1.0
angle_coeff  1       1000.0    109.47
pair_coeff   1 1  0.1553  3.166
pair_coeff   2 2  0.0     0.0
pair_modify mix arithmetic # using Lorenz-Berthelot mixing rules

group water type 1 2
73167 atoms in group water
velocity water create 300 48455 mom yes rot yes

fix integrator all nvt temp 300.0 300.0 0.1
thermo_style custom step   temp  press
thermo 100
timestep 0.0001

run 10000
Generated 1 of 1 mixed pair_coeff terms from arithmetic mixing rule
For more information see https://docs.lammps.org/err0027 (src/domain.cpp:1052)
Step          Temp          Press
0   300            4034814.9
Averages over the last 51 of 101 rows, steps 5000 to 10000:
Temp Press
789.533 378903
Loop time of 274.986 on 1 procs for 10000 steps with 73167 atoms

timestep 1
unfix integrator
fix integrator all nvt temp 300.0 300.0 10

timestep 0.1

dump 1 all custom 100 simulation_data.lammpstrj id type x y z
run 10000
Generated 1 of 1 mixed pair_coeff terms from arithmetic mixing rule
For more information see https://docs.lammps.org/err0027 (src/domain.cpp:1052)
Step          Temp          Press
10000   548.74839      316965.16
Averages over the last 51 of 101 rows, steps 15000 to 20000:
Temp Press
298.503 4182.31
Loop time of 295.477 on 1 procs for 10000 steps with 73167 atoms
