LAMMPS (10 Sep 2025 - Development - patch_10Sep2025-660-g792d014343)
# Defining essential variables

units lj
atom_style  hybrid sphere molecular
boundary p p p
pair_style hybrid lj/cut 2.0 cosine/squared 0.12

# Creating simulation box

region box block 0 30.0 0 30.0 0 30.0
create_box 2 box
Created orthogonal box = (0 0 0) to (30 30 30)

# Loading and creating molecule from the given template

molecule patchy_part patchy_molecule.mol
Read molecule template patchy_part:
(no title)
  1 molecules
  0 fragments
  0 bodies
  3 atoms with max type 2
  0 bonds with max type 0
  0 angles with max type 0
  0 dihedrals with max type 0
  0 impropers with max type 0
create_atoms 0 random 1000 87910 NULL mol patchy_part 454756 overlap 1.5 maxtry 50
Created 3000 atoms

pair_modify shift yes
# Defining particle properties and interaction parameters among the particles

pair_coeff 1 1 lj/cut 1.0 1.0 1.1224
pair_coeff 1 2 none
pair_coeff 2 2 cosine/squared 8 0.3 0.35        # Gaussian potential for peripheral atoms

set type 1 mass 1.0
Setting atom values ...
  1000 settings made for mass
set type 2 mass 0.000001
Setting atom values ...
  2000 settings made for mass

set type 1 diameter 1.0
Setting atom values ...
  1000 settings made for diameter
set type 2 diameter 0.0
Setting atom values ...
  2000 settings made for diameter

# Grouping the particles in different set to apply different fixes

group core type 1
1000 atoms in group core
group patch type 2
2000 atoms in group patch
group rigid_molecule type 1 2
3000 atoms in group rigid_molecule

# Speeding up simulation by excluding the unnecessary calculation of particles within the molecule

neigh_modify exclude molecule/intra rigid_molecule every 1 delay 0 check no

# Setting up thermostat on the brownian particles while the patches are being treated just an interaction cites

fix thermo_stat  core langevin 1.0 1.0 0.1 428984  omega yes

# Exporting the simulation data

dump 1 all custom 10000 simulation_data.lammpstrj id type x y z mol
fix rigid_thermo rigid_molecule rigid/small molecule
Fix rigid/small setup ...
  1000 rigid bodies with 3000 atoms
  0.5 = max distance from body owner to body atom

# Computing temperature and kinetic energy just on the central core particles

compute kinetic_core core ke
fix kinetic_output core ave/time 100 1 100 c_kinetic_core file kinetic.dat mode scalar

compute temp_core core temp/sphere
fix temp_output core ave/time 100 1 100 c_temp_core file temperature.dat mode scalar

# Defining the time step achieved in lj unit with each simulation step

timestep 0.005                               # Set timestep

# Specifying the parameters to be printed on the terminal

thermo 100
thermo_style custom step temp ke pe press c_kinetic_core c_temp_core

# Running the simulation

run 1000000
Generated 0 of 1 mixed pair_coeff terms from geometric mixing rule
Step          Temp          KinEng         PotEng         Press      c_kinetic_core  c_temp_core
0   0              0              0              0.188285       0              0
Averages over the last 5001 of 10001 rows, steps 500000 to 1000000:
Temp KinEng PotEng Press c_kinetic_core c_temp_core
1.02553 0.51225 -3.66333 0.00798082 0.512248 1.02128
Loop time of 1561.64 on 1 procs for 1000000 steps with 3000 atoms
